Version 4
SHEET 1 880 680
WIRE 528 -160 496 -160
WIRE 544 -160 528 -160
WIRE 640 -160 608 -160
WIRE 720 -160 640 -160
WIRE 752 -160 720 -160
WIRE 528 -144 528 -160
WIRE 144 -64 -96 -64
WIRE 272 -64 144 -64
WIRE 288 -64 272 -64
WIRE 400 -64 368 -64
WIRE 432 -64 432 -160
WIRE 432 -64 400 -64
WIRE 528 -64 528 -80
WIRE 528 -64 496 -64
WIRE 528 -48 528 -64
WIRE 640 -48 640 -160
WIRE -96 32 -96 -64
WIRE 144 32 144 16
WIRE 272 32 272 -64
WIRE 720 96 720 -160
WIRE 400 112 400 -64
WIRE 400 112 336 112
WIRE 720 176 336 176
WIRE 368 240 336 240
WIRE 368 272 368 240
WIRE 208 336 208 320
FLAG -96 112 0
FLAG 208 336 0
FLAG 368 272 0
FLAG 720 256 0
FLAG 528 16 0
FLAG 640 16 0
FLAG 752 -160 Vout
IOPIN 752 -160 Out
SYMBOL PowerProducts\\LT1073 208 176 R0
SYMATTR InstName U1
SYMBOL voltage -96 16 R0
WINDOW 123 0 0 Left 2
WINDOW 39 0 0 Left 2
SYMATTR InstName V1
SYMATTR Value 1.5
SYMBOL res 128 -80 R0
SYMATTR InstName R1
SYMATTR Value 220
SYMBOL ind 272 -48 R270
WINDOW 0 32 56 VTop 2
WINDOW 3 5 56 VBottom 2
SYMATTR InstName L1
SYMATTR Value 150µ
SYMBOL diode 432 -48 R270
WINDOW 0 32 32 VTop 2
WINDOW 3 0 32 VBottom 2
SYMATTR InstName D1
SYMATTR Value MUR160
SYMBOL diode 544 -80 R180
WINDOW 0 24 64 Left 2
WINDOW 3 24 0 Left 2
SYMATTR InstName D2
SYMATTR Value MUR160
SYMBOL diode 544 -144 R270
WINDOW 0 32 32 VTop 2
WINDOW 3 0 32 VBottom 2
SYMATTR InstName D3
SYMATTR Value MUR160
SYMBOL cap 496 -176 R90
WINDOW 0 0 32 VBottom 2
WINDOW 3 32 32 VTop 2
SYMATTR InstName C1
SYMATTR Value 470n
SYMBOL cap 512 -48 R0
SYMATTR InstName C2
SYMATTR Value 470n
SYMBOL cap 624 -48 R0
SYMATTR InstName C3
SYMATTR Value 470n
SYMBOL res 704 80 R0
SYMATTR InstName R2
SYMATTR Value 10Meg
SYMBOL res 704 160 R0
SYMATTR InstName R3
SYMATTR Value 24k
TEXT -96 -104 Left 2 !.tran 150m
